Version 4
SHEET 1 6584 784
WIRE 4016 -592 4016 -784
WIRE 4016 -592 3600 -592
WIRE 4352 -592 4016 -592
WIRE 4352 -464 4352 -592
WIRE 3712 -384 3680 -384
WIRE 4352 -368 4352 -384
WIRE 4352 -368 3808 -368
WIRE 3600 -352 3600 -592
WIRE 3712 -352 3600 -352
WIRE 3680 -288 3680 -384
WIRE 3744 -288 3680 -288
WIRE 224 -272 224 -464
WIRE 224 -272 -192 -272
WIRE 560 -272 224 -272
WIRE 4352 -224 4352 -368
WIRE 4528 -224 4352 -224
WIRE 3744 -192 3744 -288
WIRE 4224 -192 3744 -192
WIRE 4352 -192 4352 -224
WIRE 4528 -192 4528 -224
WIRE 560 -144 560 -272
WIRE 4224 -144 4224 -192
WIRE 4224 -144 4176 -144
WIRE 4288 -144 4224 -144
WIRE -80 -64 -112 -64
WIRE 4224 -64 4224 -144
WIRE 4352 -64 4352 -96
WIRE 4352 -64 4224 -64
WIRE 560 -48 560 -64
WIRE 560 -48 16 -48
WIRE 4176 -48 4176 -144
WIRE 4464 -48 4464 -144
WIRE 4464 -48 4176 -48
WIRE -192 -32 -192 -272
WIRE -80 -32 -192 -32
WIRE 4528 -16 4528 -96
WIRE 4528 -16 4352 -16
WIRE 4352 0 4352 -16
WIRE 4704 0 4352 0
WIRE -112 32 -112 -64
WIRE -48 32 -112 32
WIRE 4704 80 4704 0
WIRE 560 96 560 -48
WIRE 736 96 560 96
WIRE 4352 96 4352 0
WIRE 3744 112 3744 -192
WIRE -48 128 -48 32
WIRE 432 128 -48 128
WIRE 560 128 560 96
WIRE 736 128 736 96
WIRE 432 176 432 128
WIRE 432 176 384 176
WIRE 496 176 432 176
WIRE 432 256 432 176
WIRE 560 256 560 224
WIRE 560 256 432 256
WIRE 384 272 384 176
WIRE 672 272 672 176
WIRE 672 272 384 272
WIRE 4352 272 4352 176
WIRE 4704 272 4704 160
WIRE 4704 272 4352 272
WIRE 736 304 736 224
WIRE 736 304 560 304
WIRE 560 320 560 304
WIRE 912 320 560 320
WIRE 912 400 912 320
WIRE 3744 400 3744 192
WIRE 4048 400 3744 400
WIRE 4352 400 4352 272
WIRE 4352 400 4048 400
WIRE 560 416 560 320
WIRE -48 432 -48 128
WIRE 560 592 560 496
WIRE 912 592 912 480
WIRE 912 592 560 592
WIRE -48 720 -48 512
WIRE 256 720 -48 720
WIRE 560 720 560 592
WIRE 560 720 256 720
FLAG -496 -464 0
FLAG -496 -544 tnode
FLAG -304 -464 0
FLAG -304 -544 Vcc
FLAG 224 -464 Vcc
FLAG 256 720 0
FLAG 4016 -784 Vcc
FLAG 4048 400 0
SYMBOL voltage -496 -560 R0
WINDOW 123 0 0 Left 0
WINDOW 39 0 0 Left 0
SYMATTR InstName Vtemp1
SYMATTR Value 300
SYMBOL voltage -304 -560 R0
WINDOW 123 0 0 Left 0
WINDOW 39 0 0 Left 0
SYMATTR InstName V1
SYMATTR Value 5
SYMBOL res 544 -160 R0
SYMATTR InstName Rsense_120k
SYMATTR Value 120k
SYMATTR SpiceLine tol=0.1 pwr=250m
SYMBOL bv 560 400 R0
SYMATTR InstName B1
SYMATTR Value V=table(Tk,1.4,1.64429,4.2,1.57848,10,1.38373,20,1.19775,30,1.10624,50,1.07310,77,1.02759,100,0.98697,150,0.88911,200,0.78372,250,0.67346,300,0.55964,400,0.32584,500,0.090681)
SYMBOL res -64 416 R0
SYMATTR InstName R1
SYMATTR Value 21k
SYMATTR SpiceLine tol=0.1 pwr=250m
SYMBOL res 896 384 R0
SYMATTR InstName Radc1
SYMATTR Value 10G
SYMBOL AutoGenerated\\LM4041_N_ADJC1P233 -32 -48 R180
SYMATTR InstName U2
SYMBOL pnp 496 128 R0
SYMATTR InstName Q1
SYMBOL pnp 672 128 R0
SYMATTR InstName Q2
SYMBOL res 4336 -480 R0
SYMATTR InstName Rsense_122k
SYMATTR Value 122k
SYMATTR SpiceLine tol=0.1 pwr=250m
SYMBOL bv 4352 80 R0
SYMATTR InstName B2
SYMATTR Value V=table(Tk,1.4,1.64429,4.2,1.57848,10,1.38373,20,1.19775,30,1.10624,50,1.07310,77,1.02759,100,0.98697,150,0.88911,200,0.78372,250,0.67346,300,0.55964,400,0.32584,500,0.090681)
SYMBOL res 3728 96 R0
SYMATTR InstName R2
SYMATTR Value 21k
SYMATTR SpiceLine tol=0.1 pwr=250m
SYMBOL res 4688 64 R0
SYMATTR InstName Radc2
SYMATTR Value 10G
SYMBOL AutoGenerated\\LM4041_N_ADJC1P233 3760 -368 R180
SYMATTR InstName U1
SYMBOL pnp 4288 -192 R0
SYMATTR InstName Q3
SYMBOL pnp 4464 -192 R0
SYMATTR InstName Q4
TEXT -160 -592 Left 2 !.include /home/andres/Documents/LTspiceXVII/lib/sub/THATMacroModels-Rev05/THAT300_Series_Macro_01.lib
TEXT -528 744 Left 2 !.step param Tk 1.4 500 1
TEXT -720 24 Left 2 !.include LM4041_N_ADJC1P233_TRANS.lib
TEXT -432 400 Left 2 !.param Tk = 1
TEXT -720 768 Left 2 !.op
TEXT 3632 -912 Left 2 !.include /home/andres/Documents/LTspiceXVII/lib/sub/THATMacroModels-Rev05/THAT300_Series_Macro_01.lib
TEXT 3072 -296 Left 2 !.include LM4041_N_ADJC1P233_TRANS.lib
